365
 xtb: 6.5.1 (579679a)
Au           7.83818293402339        9.55757497121139        9.06218079317694
Au           9.22780396144474        9.24292856832936        6.51923658543972
Au           9.70594265986168        7.30704603524889        8.70897983651141
Au           9.72700822958267        8.78804984129908       11.28218557585461
Au           9.24538498751827       11.65452364342062       10.68840779270765
Au           8.95836351784817       11.94349319315007        7.75325389056161
Au          10.63495560688545        9.97146147704698        8.85994119762767
Au          11.99529166455222       10.69007878982232       11.24311678386676
Au          11.53175365010227       12.65216048492930        9.05413907217926
Au          11.60597879411736       11.17290723593177        6.46847328376733
Au          12.07861893210324        8.31726219881870        7.05405625135001
Au          12.29304184446248        7.99362245348929       10.00482193646996
Au          13.42767162934392       10.38866593497678        8.59551038650078
Cl           5.52115046792087        9.15368269485281        9.72808720371740
Cl          15.42263487536348       10.99490582496028        9.84373690673977
N            6.80140208167893        9.29179734736328        4.49057574832152
N            8.54282278600469        8.49113095243091        3.51270648967034
N           11.00697284705842       12.07408308424039        3.52617322617890
N           12.25498775110823       13.53147612884389        4.50353351074660
N            7.67523335690288        5.01323397408199        7.91742010164641
N            9.58390355475376        4.17511874614084        8.45646998565589
N           12.16723978195844        5.73183640670409        5.28085802373151
N           13.34689455869277        7.29765406843810        4.38760785685305
N            7.89822538911070        6.85458250003416       13.03188068330016
N            9.64011397249458        7.48088429622659       14.13334236387874
N           12.88956164833820        5.58386153038014       11.88120505158774
N           14.15785444944678        5.46382752281755       10.14312830156850
N            7.05698938183842       12.18988727921905       12.95353303465548
N            8.50516464232045       13.78139867504642       12.86552350451394
N           12.15379503662562       11.71430803349057       14.17509798411991
N           13.84150015121008       10.44126704667576       13.75363636659073
N            6.40297073213248       13.82433189846919        7.73348189458421
N            7.96934757592667       14.65800714988190        6.51273244472107
N           11.23791212005552       15.72939339069990        9.34154303235643
N           13.03734504341669       15.06690389288308       10.33139088250539
C            5.50157303492187       11.23446412109013        5.19087333824973
C            4.23622310476586       11.68679138493762        5.55530106523214
H            3.55466894945061       11.03331891365602        6.05961576855288
C            3.84312121756587       12.98208235297911        5.24772844654555
H            2.86539857511132       13.34078502274831        5.51946304560899
C            4.70686949194112       13.82974569425063        4.56843021608296
H            4.41127508532324       14.84597515608599        4.30654936843491
C            5.97301832209422       13.38563384365694        4.21378376183873
H            6.66718212499626       14.04635657489827        3.67703356979815
C            6.37380747052468       12.09623541958484        4.53149317491167
H            7.37116481417914       11.75356937954567        4.24619513987296
C            5.90886575354947        9.81548018498110        5.50756973274354
H            5.02725217314784        9.17187482138310        5.56674435233878
H            6.43513474480903        9.77459153817674        6.45899951581995
C            8.06321626181491        8.89704915770652        4.70051369443126
C            6.45033393460376        9.13938106516546        3.16050247673067
C            5.27596434701890        9.39680224604578        2.46171673480913
H            4.40595204532714        9.81219965790595        2.94143868125205
C            5.28023847638902        9.10189168508786        1.10929352232445
H            4.39538439354742        9.28825053038084        0.51460279015005
C            6.40971143787245        8.57082443739696        0.47455907119195
H            6.37133327018979        8.35459638652260       -0.59030037755061
C            7.58177799265784        8.31479337998885        1.16537323098740
H            8.45919027910942        7.90271733296824        0.67270089141032
C            7.58282499438155        8.61053819981289        2.52412277030706
C            9.85022694061599        7.88542585713074        3.33699921157285
H            9.71069094494106        6.82399959109400        3.09732798737946
H           10.35449285048638        7.94328522894362        4.31171849878591
C           10.69880747395549        8.54623475479717        2.27532124345233
C           11.24178168495016        7.73491348464614        1.28249481185529
H           10.98242275621126        6.67587590951686        1.26399400570569
C           12.11680368908709        8.24779513276993        0.33692249779303
H           12.52470424155552        7.59141928677499       -0.42596264256238
C           12.47852348823861        9.58372684906779        0.39843843397737
H           13.18879562119016        9.98376490164805       -0.31071015567124
C           11.92351857768764       10.40594369038040        1.36787769543808
H           12.21576567355027       11.44175309033053        1.39608354141193
C           11.01244390189040        9.91156689320282        2.29625296137578
C           10.30944621848836       10.83035877344612        3.27572931253603
H            9.30997524976542       11.06069710104387        2.89387100591140
H           10.19814876099462       10.33713777557901        4.24309155930669
C           11.73111978410672       12.30411912559866        4.63340158102343
C           11.06909734962310       13.15428821742905        2.66406627118374
C           10.47795021675780       13.41413243494331        1.43079060414939
H            9.82593517835282       12.69500195374184        0.95079344981127
C           10.78335105237519       14.62565119758623        0.83583454879024
H           10.36475271523548       14.86011500793466       -0.13507909838731
C           11.64791493179990       15.54536656405906        1.44192067682833
H           11.88613600131668       16.46418114910373        0.92066124891885
C           12.22277500338596       15.30023103116664        2.67702942382117
H           12.89797875286508       16.01046481249920        3.13570609466110
C           11.90740633880336       14.09068179131559        3.28875088947346
C           13.13712164361291       14.13124132338946        5.49288969562697
H           13.29145653211009       15.17736819560528        5.22131708468893
H           12.64077581816131       14.09306671881364        6.46411012363203
C           14.45949382379568       13.40144756456731        5.54701228314520
C           15.11588952833061       13.04159770163777        4.37351152736801
H           14.66585232586513       13.25383663918936        3.41054129612247
C           16.35084600510772       12.41298151688138        4.43420565427212
H           16.86067975673688       12.13097733137030        3.51535268108711
C           16.94104223305016       12.15111909813042        5.66332945052164
H           17.91292463689302       11.66366892062397        5.70650336074634
C           16.28384572813771       12.49871794634582        6.83439550140410
H           16.73242850682942       12.28354200820413        7.79705565476272
C           15.04080916458096       13.11257602585870        6.77611648842254
H           14.53051387952893       13.38015590480690        7.68929213916524
C            6.19012915894747        6.03478862928010        6.26518645722776
C            4.88189746504351        6.38028973642515        5.93618511145469
H            4.17207041148569        6.59708376900232        6.71332905711960
C            4.48613188250851        6.42867741049862        4.60689130399413
H            3.47239794563069        6.69189507670969        4.34809350970639
C            5.39075600289591        6.12415114867211        3.59917040379168
H            5.08774370521094        6.14501963667407        2.55389936203053
C            6.69929655974321        5.79467674841955        3.92294469563172
H            7.42028956953977        5.55699167834103        3.13509379458895
C            7.10230792030035        5.76042332297718        5.25006288019403
H            8.13185531602429        5.49774574595673        5.49314173469304
C            6.59204720114091        5.95742522057465        7.71806590287452
H            6.93254048562181        6.92816447840118        8.07232925024681
H            5.74182732682545        5.64416898028132        8.33059252203724
C            8.87710003787546        5.31768575452045        8.42029655692966
C            7.58901074505950        3.66150740206911        7.63153929815423
C            6.56692836565661        2.87236997641557        7.11541953237605
H            5.61655628339000        3.28653087229057        6.83007078536353
C            6.83466606579045        1.52156678558170        6.97553667280613
H            6.08020605080761        0.86138880909268        6.57039119547210
C            8.07245651772269        0.97456796980054        7.33517583562635
H            8.24601958623356       -0.09102469813586        7.20237571555745
C            9.09378307050807        1.75599570984073        7.84780811560559
H           10.05910566386286        1.33274912892625        8.12133041972990
C            8.82985980496271        3.11390745671617        7.98962921548830
C           10.88879874009207        4.06240206088861        9.08291736786676
H           10.77741694835215        3.49895796414641       10.01298058554814
H           11.19976153977571        5.08394670455182        9.34358570927573
C           11.94425625624944        3.41346896801204        8.21943003518032
C           12.64104797326453        2.33458689032315        8.75826435389206
H           12.35931028844159        1.95979080004823        9.73624947192068
C           13.69871729052262        1.75132244680400        8.07782737009798
H           14.22774600033743        0.91336728835279        8.51723684486097
C           14.08874501475036        2.27190501780114        6.85471859451686
H           14.93958593706875        1.85303453395528        6.32799224962045
C           13.38758507319574        3.33234387460920        6.29975917850554
H           13.71039220419241        3.72068052714363        5.34237340537912
C           12.29624841649028        3.89842807597978        6.95290151274006
C           11.45584248963267        4.97436190964079        6.29016553366161
H           10.58198120877030        4.51113196678730        5.82328703559612
H           11.10878323441491        5.69495637731602        7.02880186063353
C           12.69374303894523        6.94883539814392        5.50501630836574
C           12.49298374336309        5.28306723234350        4.01268841787729
C           12.16537819069507        4.12918976891004        3.30565348692087
H           11.55060626123544        3.36018545552359        3.73192327773098
C           12.69197014984810        4.00733670209677        2.03162758211469
H           12.48873809068051        3.12562943382657        1.44719101417307
C           13.51574940474700        4.99550645681734        1.47865871937451
H           13.93556095954134        4.85387020191480        0.48657468821779
C           13.82505154778320        6.15526258776151        2.16809285336118
H           14.46304799291443        6.92774592604585        1.73432488450861
C           13.28824516074924        6.29064387796208        3.44484859353662
C           14.13236793635002        8.52056922152674        4.26914834584797
H           13.52674373825069        9.35490323262179        4.65259815415981
H           14.33792128072781        8.70231396547945        3.21255375733370
C           15.40737859789922        8.37988817021100        5.06958551277882
C           15.64465697983088        9.19848263058001        6.16638034360252
H           14.92274155652306        9.95710035568353        6.44526316618061
C           16.80498309632223        9.05566019723823        6.91313343859515
H           16.97353375230944        9.68521786902317        7.77864786321679
C           17.74060056643068        8.09534355445771        6.55828810304266
H           18.66592199072252        7.99990701261463        7.11634878096042
C           17.50637671576219        7.26872902052553        5.46757292753409
H           18.25329072680383        6.54536043806428        5.15751548252135
C           16.34221107363696        7.40614467249693        4.72654583106343
H           16.17282373252285        6.78659411199624        3.85271715035378
C            6.78192763235009        5.33756167269786       11.47312365971027
C            5.56125168704634        4.87925378217293       10.98419808582583
H            4.70794605983026        5.52904635283085       10.97529804846050
C            5.43838587304022        3.57517167654909       10.52560958640170
H            4.49443909752250        3.21311407518488       10.14742032681910
C            6.52988730643722        2.71868684743143       10.56036880617505
H            6.44328753318620        1.68821270838982       10.21234611990650
C            7.75194755793317        3.17688919202188       11.03225378019119
H            8.61996783424262        2.50795059533596       11.05665728473954
C            7.88226296291217        4.48459915651888       11.47706639398350
H            8.84640264761513        4.83137508778857       11.84773674625245
C            6.88732619153498        6.74882997972998       11.99630575990268
H            7.16116388208349        7.43077179998939       11.19719719468914
H            5.92890374723144        7.06864131637108       12.41175863727631
C            8.95394439704238        7.67470219386185       12.99298556487019
C            7.87992090649533        6.13130620280273       14.21216101249142
C            6.99790061702547        5.18470215421826       14.72222413137436
H            6.13347694304062        4.85540935281358       14.17285857820685
C            7.29139542098386        4.67172814132063       15.97373296591404
H            6.64562581483439        3.92284961876039       16.41564911287444
C            8.42004549765443        5.08372922673614       16.69284568088540
H            8.61965160731858        4.64811229130330       17.67070653315023
C            9.30150866000900        6.02502963421734       16.18963618493290
H           10.18205328297678        6.33992682429021       16.74627583959150
C            9.01082416567712        6.54352434977276       14.93238421686485
C           10.77054975968227        8.29716734509882       14.53938869555331
H           10.44711180029504        8.94914456222115       15.35366405106804
H           11.02299061763765        8.92953896939855       13.67916376465499
C           11.99176936124610        7.51944216082894       14.97113582484974
C           12.53607655953608        7.81934115317446       16.21743454723154
H           12.02952333750675        8.53177068321768       16.85728706143244
C           13.72215019102368        7.23957306459401       16.64094235826719
H           14.12671482392176        7.48549325612898       17.61605843916062
C           14.39706662592176        6.37587448527869       15.79417913101700
H           15.34884712122625        5.94664948137441       16.09316852843692
C           13.85215281437679        6.05266296804513       14.56018723580074
H           14.39523350039104        5.37079959869925       13.91628211601116
C           12.63642961896512        6.58864565383244       14.14518227285648
C           11.97266440966235        6.12828866176413       12.86184668948008
H           11.23043335709670        5.35807248893994       13.10039381461079
H           11.46206714208226        6.95670915066574       12.37974853513711
C           13.30459201982461        6.26332647416189       10.79647140665898
C           13.49183209872642        4.33915385871705       11.93860911895803
C           13.36998675415777        3.26856620973105       12.82045937432211
H           12.71576341512005        3.30230180210618       13.66624674820113
C           14.15650950237498        2.15847820392284       12.56618620618406
H           14.12298390938115        1.30815610514886       13.22427152681393
C           15.03451260138916        2.11231681193776       11.47634164305300
H           15.66452737924697        1.23883578232827       11.32150643169892
C           15.14131654837875        3.16420628988499       10.58304178657781
H           15.82711289919291        3.13360001890012        9.73031830963400
C           14.34248554972137        4.27708058836066       10.82450313230428
C           14.87791330918560        5.83908213200011        8.93282573892057
H           14.27546430285015        6.60459015729136        8.41661447961967
H           14.95720704817811        4.96789171267639        8.28354144395218
C           16.23511901727965        6.39791360076439        9.29284436338594
C           16.31811454725439        7.63286479090203        9.92740457147904
H           15.42316949257884        8.18087684848109       10.16360878927785
C           17.55265452385915        8.16706577921613       10.26096756690088
H           17.61955135708479        9.12928023614492       10.74022645201802
C           18.71268190039028        7.45728335839544        9.98056230755966
H           19.69002817814570        7.86257437981396       10.22338296535631
C           18.63381044429259        6.21876363749950        9.35810906561894
H           19.53758713640547        5.66428894917146        9.09681416994720
C           17.39759699050457        5.68952535524046        9.01036135379550
H           17.33553159326157        4.73849500121646        8.47814965488110
C            6.28852398627047       10.02981833374779       13.80310509572366
C            5.19305912558114        9.18773328937109       13.97595706074706
H            4.37377521113759        9.21913404315723       13.27491944927898
C            5.14408520683626        8.31990677061886       15.05790834939549
H            4.29609019703869        7.66459032275390       15.19158377439454
C            6.18314824549450        8.29353428541834       15.97750233823367
H            6.15159208411925        7.62163126718674       16.82946581601018
C            7.28339707508441        9.12072004817008       15.80001864966838
H            8.10880050375225        9.10181969705266       16.51154885369229
C            7.34259905349370        9.97868539461061       14.71128136729742
H            8.20623157591210       10.62856863982838       14.57839596383615
C            6.31058135904902       10.98608430580650       12.63648533537485
H            6.77590153458252       10.52632780395336       11.77035250197027
H            5.28571930342067       11.27252898697398       12.35981227853201
C            8.09927137262634       12.65437610027120       12.25549889089945
C            6.76442736182164       13.02738724775227       14.01635387047694
C            5.78243938570787       12.99116783093981       15.00082740341344
H            5.05638389161930       12.19888751854631       15.05387413548892
C            5.78045398842433       14.02908096196566       15.91635998494622
H            5.03944463691476       14.05187654022500       16.70513582480295
C            6.71915494292330       15.06633057238122       15.85631613061608
H            6.68346387141196       15.86405266859786       16.59555705938399
C            7.69796101133036       15.10783997171507       14.87852203640966
H            8.42724517104226       15.91395017095579       14.83141212382717
C            7.70474645533108       14.06657507449781       13.95653808524553
C            9.54112653356136       14.65173916311270       12.33893445492771
H            9.06495122119786       15.55883645332130       11.95014732755438
H            9.99130922346292       14.12165127207977       11.48833930738408
C           10.60987355676542       15.02406698417632       13.33978735418672
C           10.86475332280887       16.38045651773972       13.52859759811865
H           10.25408428198501       17.11069392457257       13.00090208426972
C           11.89356537566401       16.80965256180755       14.35206532351314
H           12.07212805260644       17.87185631964657       14.47898900872932
C           12.70398962631530       15.87234646888414       14.97123250413446
H           13.53472006297213       16.19310910511252       15.58516365650649
C           12.44611564482620       14.52005398662239       14.80545615046208
H           13.08688593206065       13.80773361021319       15.30094772173828
C           11.38767840496187       14.07623444172964       14.01784072193304
C           11.03066479666358       12.60275971988187       13.94873723838806
H           10.25621124192071       12.38795954463866       14.69760351897372
H           10.62821784445131       12.35401405965922       12.96843102848946
C           12.83393559372329       11.11058699790987       13.18138617521549
C           12.73697527099523       11.44377398946539       15.40070233115959
C           12.40421036028054       11.79199936997749       16.70740396961591
H           11.53696516275224       12.39789641010524       16.93390999978626
C           13.24999250055594       11.34299288402366       17.70702803798082
H           13.04199092308512       11.60471180362009       18.73790294958466
C           14.38710190743338       10.57683932509222       17.42170974690504
H           15.03588023226442       10.27310741888108       18.23569911207853
C           14.70645085542654       10.20381559759352       16.12765223800130
H           15.58193269148682        9.60675106465716       15.90596988984701
C           13.85142283368561       10.63921462375015       15.12067176554909
C           14.84137491169129        9.67080573649685       13.03398517782568
H           14.57659408038296        9.71651039739274       11.97138719679443
H           14.78514165480650        8.62703160786499       13.36229046155508
C           16.22053816363361       10.24602386908203       13.24713417384764
C           16.41448479885031       11.62424297833176       13.22961082819280
H           15.56777646029508       12.28339323609834       13.08753509277660
C           17.68718951853277       12.14899875146068       13.39621288755435
H           17.83543574243453       13.21691228377496       13.38643475751736
C           18.77262526540184       11.30147679748807       13.57322035104234
H           19.76783162313088       11.70264443814237       13.69822047520641
C           18.58220972698861        9.92742589019193       13.59032390054212
H           19.42181000071606        9.25225375639927       13.72938158441223
C           17.30820241429416        9.39850556316926       13.43114434281965
H           17.15327397051718        8.31886879316164       13.44666605292367
C            5.31663155015103       13.55490777889649        9.91279892332712
C            6.09127256861758       14.58215244942257       10.44397220341752
H            6.97774666567152       14.93710421810187        9.90975743534366
C            5.72858007957494       15.17901767331325       11.64294654889169
H            6.33936638139619       16.00239958190010       12.03699572847233
C            4.60604029483374       14.73939630859778       12.33010817121554
H            4.33518870700116       15.22743599242390       13.26471399993120
C            3.85087395180759       13.69195642637926       11.82083730371374
H            2.98296479206582       13.36098009075659       12.36102393486888
C            4.20131248526198       13.10339016436557       10.61395369238007
H            3.59929360986107       12.31514952423848       10.21149146227222
C            5.65616715530821       12.91923785939599        8.58635622683376
H            6.26463887555146       12.03426474992567        8.73512607418240
H            4.73924665038805       12.63038954689931        8.06241970690318
C            7.62291111816473       13.58300248626351        7.23974523779003
C            5.93760358257553       15.05782568582845        7.30932384896079
C            4.74491555025559       15.73829930354057        7.52975346251234
H            3.96581588599034       15.33797112746583        8.14337150747377
C            4.61054609483691       16.97236019162172        6.91776912659067
H            3.71057221429609       17.55307763697584        7.05136683128650
C            5.62408772109808       17.51038350616713        6.11555432534230
H            5.48722949784716       18.48666402525902        5.64748844801760
C            6.81364150642669       16.83779874962266        5.89414703508310
H            7.60734849815116       17.25740672264792        5.26809897224583
C            6.95478331133197       15.59783977911063        6.50770989083535
C            9.17710061317726       14.71001670894317        5.70719253059203
H            8.90240382444118       14.57201628397181        4.65775061789611
H            9.78814180331678       13.84341518527495        6.00587897401014
C            9.97956873944467       15.98092730843457        5.85525292839783
C           10.24471270410822       16.70073473726050        4.69095270815340
H            9.81945956248104       16.35874098801578        3.75292708649592
C           11.06138607829214       17.82003511280575        4.70485190419672
H           11.26171253203701       18.35503369970284        3.78238420174566
C           11.64036234350878       18.22070990156729        5.89812048064436
H           12.31013461516316       19.07386285053085        5.92113174633100
C           11.36118270159718       17.52823234887164        7.06578082231037
H           11.81994486004703       17.86591456659468        7.98489057366505
C           10.51920375557492       16.41815925681996        7.07162930117937
C           10.14573194470718       15.75050526194313        8.38479430873580
H            9.30267655165281       16.28839579974120        8.83273849927884
H            9.84892113470062       14.71829103390689        8.22368566781661
C           12.08792489315388       14.69032215034731        9.46525080783181
C           11.65512720055011       16.79534107805480       10.12023475831051
C           11.12536000114919       18.06104397618343       10.36043542238782
H           10.21096721859253       18.39188407808418        9.90522718789471
C           11.84928835935469       18.89214342888511       11.19872594167583
H           11.49987579997451       19.89329511336373       11.39778054578563
C           13.05318401529980       18.48106014564099       11.78449883756676
H           13.61115446594163       19.17318968405761       12.41073932237979
C           13.56576172662706       17.21203719296950       11.57818661400831
H           14.50088849877478       16.88641932720084       12.03602765380464
C           12.83906700843283       16.37078304030558       10.74228586761166
C           14.20366313650075       14.27521871805552       10.67512666468047
H           13.97525602983781       13.22297991271434       10.44913838093114
H           14.37967508907783       14.35438151516820       11.75022492596988
C           15.43423686119450       14.70063275286408        9.90133553908648
C           15.39019348674637       15.66240587239569        8.89727980271344
H           14.46197772234822       16.14715259045202        8.64269460220748
C           16.54527294040346       15.99632393792625        8.20189469773306
H           16.50561564942118       16.73614908811766        7.41778396549572
C           17.74659240469820       15.37089282332767        8.49928277459318
H           18.64958860689894       15.61926974824217        7.95177516660019
C           17.79222323670343       14.40572011536079        9.49657735745036
H           18.72746044979890       13.89706103703658        9.73221936679237
C           16.64237255056760       14.07257629474386       10.19516244344607
H           16.67716191342094       13.30022520016069       10.96222837335166
