430
TAXBEC
Au     15.083716   21.010697    8.412790
Au     13.013300   22.490426    7.131175
Au     13.013300   19.491572    7.131175
Au     15.494936   18.185633    8.681492
Au     15.499361   19.394898    5.983626
Au     15.639904   22.668407    6.365857
Au     14.687591   23.731822    8.770490
Au     13.013300   25.889667    7.131175
Au     11.849390   24.280853    9.775700
Au     12.410524   20.926317    9.523827
Au     12.689789   18.197089    9.534381
Au     13.013300   16.412529    7.131175
Au     15.063415   16.992294   11.510572
Au     15.099853   19.800594   10.830258
Au     17.423768   19.933032    9.306469
Au     18.706358   18.169707    7.118339
Au     18.594704   22.000070    7.336838
Au     18.412518   17.326463   10.316813
Au     15.467348   22.696068   11.684573
S      11.196123   26.088324    8.499505
S      12.136984   22.533175   11.240729
S      14.675879   20.893347   12.902863
S      16.138834   24.509686   10.427204
S      12.925070   16.341560   10.985147
S      17.179118   17.535178   12.237667
S      15.293230   16.179505    7.422127
S      19.897856   16.919370    8.619594
S      17.753264   19.331753    5.382611
S      17.775127   22.848903    5.348096
S      19.479869   21.076357    9.254268
C      11.472525   27.591244    9.555775
H      12.373046   27.549333    9.986497
C      11.373624   28.856948    8.605902
H      12.104972   28.837390    7.935572
H      10.509541   28.856948    8.123835
C      11.490744   30.086330    9.464495
H      11.412664   30.888223    8.891149
H      12.383456   30.100301    9.889513
C      10.426256   30.139417   10.542729
H      10.556389   30.958074   11.087551
H       9.533544   30.192504   10.117711
C      10.478309   28.943564   11.432700
H       9.723538   28.971504   12.071653
H      11.321571   28.951946   11.951849
C      10.400229   27.658301   10.602631
H      10.486117   26.878761   11.207355
H       9.515325   27.610802   10.166203
C      10.418448   22.346812   11.894800
H       9.786002   22.511661   11.138895
C      10.155579   23.400169   12.958771
H      10.821860   23.302377   13.683299
H      10.267494   24.299853   12.559425
C       8.807401   23.293995   13.529265
H       8.747540   23.928244   14.288022
H       8.159339   23.598546   12.841820
C       8.388373   22.022702   13.985660
H       7.414978   22.039466   14.159661
H       8.849044   21.815942   14.838549
C       8.692884   20.983315   13.001558
H       8.050027   21.053167   12.254211
H       8.570559   20.097602   13.423724
C      10.121745   21.069931   12.439622
H      10.767204   20.868759   13.161297
H      10.231056   20.385389   11.732209
C      15.998551   20.402153   14.096907
H      16.820992   20.173041   13.577757
C      16.331692   21.550508   15.032517
H      15.527470   21.813148   15.545962
H      16.641408   22.332842   14.510515
C      17.443027   21.083901   15.990947
H      18.255057   20.863171   15.468945
H      17.666856   21.815942   16.615638
C      17.013588   19.874078   16.778229
H      16.230188   20.105984   17.337313
H      17.750141   19.591879   17.377247
C      16.657024   18.739693   15.865438
H      16.334294   17.974124   16.401703
H      17.463849   18.449112   15.369108
C      15.550894   19.164389   14.852811
H      15.381721   18.429554   14.213858
H      14.710234   19.354384   15.337731
C      15.457198   25.993047   11.238732
H      14.512432   25.833786   11.515421
C      15.535278   27.197283   10.243220
H      16.464427   27.303457    9.915186
H      14.947076   27.026846    9.464495
C      15.095428   28.443429   10.953485
H      14.166278   28.331667   11.270109
H      15.113647   29.203411   10.320236
C      16.021975   28.756363   12.165785
H      16.958933   28.865331   11.863423
H      15.735682   29.597372   12.605065
C      15.925677   27.605214   13.144182
H      16.513878   27.778445   13.922906
H      14.993924   27.529775   13.475068
C      16.336897   26.289216   12.476704
H      16.248406   25.548793   13.127067
H      17.286868   26.342303   12.202867
C      11.972236   16.591069   12.548016
H      11.022265   16.334016   12.365457
C      11.972236   17.968536   13.030083
H      11.607864   18.572050   12.334080
H      12.896180   18.253529   13.238313
C      11.102948   18.038387   14.293727
H      11.110756   18.966011   14.644581
H      10.168593   17.809275   14.062677
C      11.607864   17.082822   15.377666
H      12.505781   17.367815   15.682880
H      10.996239   17.110762   16.156390
C      11.672930   15.783588   14.875631
H      10.754191   15.473449   14.670253
H      12.039905   15.185662   15.574486
C      12.508384   15.657856   13.649069
H      12.490165   14.721849   13.329592
H      13.445342   15.895350   13.857299
C      17.724115   16.116080   13.292510
H      17.224404   16.171961   14.156809
C      17.440425   14.760966   12.684934
H      16.461825   14.638028   12.596508
H      17.836029   14.716261   11.777849
C      18.013010   13.651728   13.537823
H      17.877672   12.785573   13.081427
H      17.528915   13.623788   14.402121
C      19.496526   13.855694   13.803102
H      19.837475   13.115271   14.367891
H      19.991031   13.841724   12.944509
C      19.728163   15.168897   14.499105
H      20.693750   15.286248   14.681663
H      19.246671   15.177280   15.363403
C      19.220644   16.311664   13.606282
H      19.738573   16.331222   12.764803
H      19.353380   17.177819   14.068382
C      15.504046   14.746996    8.583082
H      15.446787   15.082282    9.521545
C      14.507227   13.699227    8.394819
H      14.496816   13.428204    7.444947
H      13.611912   14.062454    8.614459
C      14.764890   12.481021    9.253413
H      14.697221   12.732486   10.206138
H      14.072583   11.799273    9.068002
C      16.107863   11.897065    8.996690
H      16.144300   11.531044    8.075343
H      16.277036   11.153848    9.629939
C      17.156735   12.947628    9.164986
H      18.036434   12.564843    8.916821
H      17.200980   13.204680   10.117711
C      16.922495   14.190980    8.337770
H      17.031807   13.975838    7.376487
H      17.593982   14.878316    8.574525
C      21.383455   17.982506    8.956756
H      21.183050   18.910130    8.640132
C      22.575473   17.437666    8.126687
H      22.721222   16.482101    8.343475
H      22.364657   17.504723    7.159700
C      23.780504   18.194854    8.417639
H      23.684206   19.091744    8.006883
H      24.537878   17.745012    7.964096
C      24.139672   18.376467    9.821054
H      24.923072   18.979982    9.875251
H      24.407745   17.501929   10.200433
C      23.002309   18.960423   10.673943
H      22.807110   19.893636   10.405811
H      23.244356   18.949247   11.635225
C      21.786867   18.055151   10.411516
H      21.995080   17.141497   10.730992
H      21.019082   18.390437   10.939222
C      17.955751   18.136179    3.984901
H      17.453438   18.491023    3.194766
C      17.463849   16.730771    4.261590
H      17.867261   16.403868    5.105921
H      16.480043   16.744742    4.375689
C      17.825618   15.803147    3.143422
H      17.346729   16.076964    2.321911
H      17.544531   14.883904    3.374472
C      19.306532   15.831087    2.895257
H      19.780216   15.557270    3.719621
H      19.527758   15.174486    2.187844
C      19.767203   17.152673    2.487354
H      19.298724   17.434872    1.662990
H      20.740598   17.127526    2.301943
C      19.467897   18.161325    3.645457
H      19.996237   17.915449    4.449853
H      19.733368   19.074979    3.371620
C      18.223825   24.637933    5.317004
H      17.487273   25.112921    4.834937
C      19.478307   24.811164    4.475525
H      19.335161   24.417203    3.579850
H      20.235682   24.341764    4.903396
C      19.806243   26.292011    4.338607
H      19.077498   26.753029    3.847982
H      20.641696   26.403773    3.822310
C      19.972813   26.926260    5.739170
H      20.201847   27.881825    5.639333
H      20.717174   26.479212    6.212680
C      18.679291   26.794940    6.583501
H      17.937533   27.283898    6.147073
H      18.819834   27.177724    7.484881
C      18.343548   25.283358    6.686190
H      19.051471   24.825134    7.205339
H      17.487273   25.171596    7.173962
C      19.301327   22.413869   10.519909
H      18.437243   22.897240   10.385843
C      20.451702   23.372228   10.371581
H      20.433484   23.782954    9.470200
H      21.310580   22.888858   10.474270
C      20.326775   24.464702   11.455520
H      19.462691   24.936896   11.358536
H      21.055519   25.124098   11.352831
C      20.412662   23.794130   12.864640
H      21.276746   23.319141   12.961624
H      20.355404   24.487054   13.572052
C      19.303929   22.846947   13.004411
H      18.447654   23.341494   12.950214
H      19.353380   22.422251   13.897234
C      19.319545   21.740503   11.914767
H      20.131575   21.181693   12.011751
H      18.525734   21.153753   12.017456
Au     10.942884   21.010697    5.849560
Au     10.531664   18.185633    5.580858
Au     10.527239   19.394898    8.278724
Au     10.386696   22.668407    7.896493
Au     11.339009   23.731822    5.491860
Au     14.177210   24.280853    4.486650
Au     13.616076   20.926317    4.738523
Au     13.336811   18.197089    4.727969
Au     10.963185   16.992294    2.751778
Au     10.926747   19.800594    3.432092
Au      8.602832   19.933032    4.955881
Au      7.320242   18.169707    7.144011
Au      7.431896   22.000070    6.925512
Au      7.614082   17.326463    3.945537
Au     10.559252   22.696068    2.577777
S      14.830477   26.088324    5.762845
S      13.889616   22.533175    3.021621
S      11.350721   20.893347    1.359487
S       9.887766   24.509686    3.835146
S      13.101530   16.341560    3.277203
S       8.847482   17.535178    2.024683
S      10.733370   16.179505    6.840223
S       6.128744   16.919370    5.642756
S       8.273336   19.331753    8.879739
S       8.251473   22.848903    8.914254
S       6.546731   21.076357    5.008082
C      14.554075   27.591244    4.706575
H      13.653554   27.549333    4.275853
C      14.652976   28.856948    5.656448
H      13.921628   28.837390    6.326778
H      15.517059   28.856948    6.138515
C      14.535856   30.086330    4.797855
H      14.613936   30.888223    5.371201
H      13.643144   30.100301    4.372837
C      15.600344   30.139417    3.719621
H      15.470211   30.958074    3.174799
H      16.493056   30.192504    4.144639
C      15.548291   28.943564    2.829650
H      16.303062   28.971504    2.190697
H      14.705029   28.951946    2.310501
C      15.626371   27.658301    3.659719
H      15.540483   26.878761    3.054995
H      16.511275   27.610802    4.096147
C      15.608152   22.346812    2.367550
H      16.240598   22.511661    3.123455
C      15.871021   23.400169    1.303579
H      15.204740   23.302377    0.579051
H      15.759106   24.299853    1.702925
C      17.219199   23.293995    0.733085
H      17.279060   23.928244   -0.025672
H      17.867261   23.598546    1.420530
C      17.638227   22.022702    0.276690
H      18.611622   22.039466    0.102689
H      17.177556   21.815942   -0.576199
C      17.333716   20.983315    1.260792
H      17.976573   21.053167    2.008139
H      17.456041   20.097602    0.838626
C      15.904855   21.069931    1.822728
H      15.259396   20.868759    1.101053
H      15.795544   20.385389    2.530141
C      10.028049   20.402153    0.165443
H       9.205608   20.173041    0.684593
C       9.694909   21.550508   -0.770167
H      10.499130   21.813148   -1.283612
H       9.385192   22.332842   -0.248165
C       8.583573   21.083901   -1.728597
H       7.771543   20.863171   -1.206595
H       8.359744   21.815942   -2.353288
C       9.013012   19.874078   -2.515879
H       9.796412   20.105984   -3.074963
H       8.276459   19.591879   -3.114897
C       9.369576   18.739693   -1.603088
H       9.692306   17.974124   -2.139353
H       8.562751   18.449112   -1.106758
C      10.475707   19.164389   -0.590461
H      10.644879   18.429554    0.048492
H      11.316366   19.354384   -1.075381
C      10.569402   25.993047    3.023618
H      11.514168   25.833786    2.746929
C      10.491322   27.197283    4.019130
H       9.562173   27.303457    4.347164
H      11.079524   27.026846    4.797855
C      10.931172   28.443429    3.308865
H      11.860322   28.331667    2.992241
H      10.912953   29.203411    3.942114
C      10.004625   28.756363    2.096565
H       9.067667   28.865331    2.398927
H      10.290918   29.597372    1.657285
C      10.100923   27.605214    1.118168
H       9.512722   27.778445    0.339444
H      11.032676   27.529775    0.787282
C       9.689703   26.289216    1.785646
H       9.778194   25.548793    1.135283
H       8.739732   26.342303    2.059483
C      14.054364   16.591069    1.714334
H      15.004335   16.334016    1.896893
C      14.054364   17.968536    1.232267
H      14.418736   18.572050    1.928270
H      13.130420   18.253529    1.024037
C      14.923652   18.038387   -0.031377
H      14.915844   18.966011   -0.382231
H      15.858007   17.809275    0.199673
C      14.418736   17.082822   -1.115316
H      13.520819   17.367815   -1.420530
H      15.030361   17.110762   -1.894040
C      14.353670   15.783588   -0.613281
H      15.272409   15.473449   -0.407903
H      13.986695   15.185662   -1.312136
C      13.518216   15.657856    0.613281
H      13.536435   14.721849    0.932758
H      12.581258   15.895350    0.405051
C       8.302485   16.116080    0.969840
H       8.802196   16.171961    0.105541
C       8.586175   14.760966    1.577416
H       9.564776   14.638028    1.665842
H       8.190571   14.716261    2.484501
C       8.013590   13.651728    0.724527
H       8.148928   12.785573    1.180923
H       8.497685   13.623788   -0.139771
C       6.530074   13.855694    0.459248
H       6.189125   13.115271   -0.105541
H       6.035569   13.841724    1.317841
C       6.298437   15.168897   -0.236755
H       5.332850   15.286248   -0.419313
H       6.779929   15.177280   -1.101053
C       6.805956   16.311664    0.656068
H       6.288027   16.331222    1.497547
H       6.673220   17.177819    0.193968
C      10.522554   14.746996    5.679268
H      10.579813   15.082282    4.740805
C      11.519373   13.699227    5.867531
H      11.529784   13.428204    6.817403
H      12.414688   14.062454    5.647891
C      11.261710   12.481021    5.008937
H      11.329379   12.732486    4.056212
H      11.954017   11.799273    5.194348
C       9.918737   11.897065    5.265660
H       9.882300   11.531044    6.187007
H       9.749564   11.153848    4.632411
C       8.869865   12.947628    5.097364
H       7.990166   12.564843    5.345529
H       8.825620   13.204680    4.144639
C       9.104105   14.190980    5.924580
H       8.994793   13.975838    6.885863
H       8.432618   14.878316    5.687825
C       4.643145   17.982506    5.305594
H       4.843550   18.910130    5.622218
C       3.451127   17.437666    6.135663
H       3.305378   16.482101    5.918875
H       3.661943   17.504723    7.102650
C       2.246096   18.194854    5.844711
H       2.342394   19.091744    6.255467
H       1.488722   17.745012    6.298254
C       1.886929   18.376467    4.441296
H       1.103528   18.979982    4.387099
H       1.618855   17.501929    4.061917
C       3.024291   18.960423    3.588407
H       3.219490   19.893636    3.856539
H       2.782244   18.949247    2.627125
C       4.239733   18.055151    3.850835
H       4.031520   17.141497    3.531358
H       5.007518   18.390437    3.323128
C       8.070849   18.136179   10.277449
H       8.573162   18.491023   11.067584
C       8.562751   16.730771   10.000760
H       8.159339   16.403868    9.156429
H       9.546557   16.744742    9.886661
C       8.200982   15.803147   11.118928
H       8.679871   16.076964   11.940439
H       8.482069   14.883904   10.887878
C       6.720068   15.831087   11.367093
H       6.246384   15.557270   10.542729
H       6.498842   15.174486   12.074506
C       6.259397   17.152673   11.774996
H       6.727876   17.434872   12.599360
H       5.286002   17.127526   11.960407
C       6.558703   18.161325   10.616893
H       6.030363   17.915449    9.812497
H       6.293232   19.074979   10.890730
C       7.802775   24.637933    8.945346
H       8.539327   25.112921    9.427413
C       6.548293   24.811164    9.786825
H       6.691439   24.417203   10.682500
H       5.790919   24.341764    9.358954
C       6.220357   26.292011    9.923743
H       6.949102   26.753029   10.414368
H       5.384904   26.403773   10.440040
C       6.053787   26.926260    8.523180
H       5.824753   27.881825    8.623017
H       5.309426   26.479212    8.049670
C       7.347309   26.794940    7.678849
H       8.089067   27.283898    8.115277
H       7.206766   27.177724    6.777469
C       7.683052   25.283358    7.576160
H       6.975129   24.825134    7.057011
H       8.539327   25.171596    7.088388
C       6.725273   22.413869    3.742441
H       7.589357   22.897240    3.876507
C       5.574898   23.372228    3.890769
H       5.593116   23.782954    4.792150
H       4.716020   22.888858    3.788080
C       5.699825   24.464702    2.806830
H       6.563909   24.936896    2.903814
H       4.971081   25.124098    2.909519
C       5.613938   23.794130    1.397710
H       4.749855   23.319141    1.300726
H       5.671196   24.487054    0.690298
C       6.722671   22.846947    1.257939
H       7.578946   23.341494    1.312136
H       6.673220   22.422251    0.365116
C       6.707055   21.740503    2.347583
H       5.895025   21.181693    2.250599
H       7.500866   21.153753    2.244894
